powerfulcases/cases/matpower/case2737sop/case2737sop.raw
0, 100, 33, 0, 0, 60  / 28-Jan-2026 21:51:27 - MATPOWER 8.1


     1, 'BUS 1       ',       220, 1,    1,    1, 1,   1.0988371,   3.1731556, 1.11, 0.95, 1.11, 0.95
     2, 'BUS 2       ',       220, 1,    1,    1, 1,   1.1062317,   2.1002592, 1.11, 0.95, 1.11, 0.95
     3, 'BUS 3       ',       220, 1,    1,    1, 1,   1.0814038,  -12.414419, 1.11, 0.95, 1.11, 0.95
     4, 'BUS 4       ',       220, 1,    1,    1, 1,   1.0978935,  -0.2625655, 1.11, 0.95, 1.11, 0.95
     5, 'BUS 5       ',       220, 1,    1,    1, 1,   1.0979028, -0.25899449, 1.11, 0.95, 1.11, 0.95
     6, 'BUS 6       ',       220, 1,    1,    1, 1,   1.0784645,  -6.7111231, 1.11, 0.95, 1.11, 0.95
     7, 'BUS 7       ',       220, 1,    1,    1, 1,   1.0785472,  -6.7055016, 1.11, 0.95, 1.11, 0.95
     8, 'BUS 8       ',       400, 1,    1,    1, 1,   1.0422298,  -5.3046136, 1.05, 0.95, 1.05, 0.95
     9, 'BUS 9       ',       400, 1,    1,    1, 1,   1.0422619,  -5.3031789, 1.05, 0.95, 1.05, 0.95
    10, 'BUS 10      ',       220, 1,    1,    1, 1,   1.0715408,   -6.753116, 1.11, 0.95, 1.11, 0.95
    11, 'BUS 11      ',       220, 1,    1,    1, 1,   1.0715132,  -6.7557551, 1.11, 0.95, 1.11, 0.95
    12, 'BUS 12      ',       220, 1,    1,    1, 1,   1.0715104,  -6.7512467, 1.11, 0.95, 1.11, 0.95
    13, 'BUS 13      ',       220, 1,    1,    1, 1,     1.07149,   -6.755826, 1.11, 0.95, 1.11, 0.95
    14, 'BUS 14      ',       400, 1,    1,    1, 1,   1.0362421,   -4.249135, 1.05, 0.95, 1.05, 0.95
    15, 'BUS 15      ',       400, 1,    1,    1, 1,        1.05,  -6.6753466, 1.05, 0.95, 1.05, 0.95
    16, 'BUS 16      ',       400, 1,    1,    1, 1,        1.05,  -6.6753466, 1.05, 0.95, 1.05, 0.95
    17, 'BUS 17      ',       220, 1,    1,    1, 1,    1.075175,  -10.326271, 1.11, 0.95, 1.11, 0.95
    18, 'BUS 18      ',       220, 1,    1,    1, 1,   1.0751192,   -10.32649, 1.11, 0.95, 1.11, 0.95
    19, 'BUS 19      ',       220, 1,    1,    1, 1,   1.1006118,  0.29052844, 1.11, 0.95, 1.11, 0.95
    20, 'BUS 20      ',       220, 1,    1,    1, 1,   1.1006331,  0.28503371, 1.11, 0.95, 1.11, 0.95
    21, 'BUS 21      ',       220, 1,    1,    1, 1,   1.0821751,    -7.00751, 1.11, 0.95, 1.11, 0.95
    22, 'BUS 22      ',       220, 1,    1,    1, 1,   1.0821751,    -7.00751, 1.11, 0.95, 1.11, 0.95
    23, 'BUS 23      ',       220, 1,    1,    1, 1,   1.0689354,  -6.8094961, 1.11, 0.95, 1.11, 0.95
    24, 'BUS 24      ',       220, 1,    1,    1, 1,   1.1024425,  0.68972441, 1.11, 0.95, 1.11, 0.95
    25, 'BUS 25      ',       400, 1,    1,    1, 1,   1.0389197,  -6.6165523, 1.05, 0.95, 1.05, 0.95
    26, 'BUS 26      ',       220, 2,    1,    1, 1,   1.1082562,   3.5097454, 1.11, 0.95, 1.11, 0.95
    27, 'BUS 27      ',       220, 2,    1,    1, 1,   1.1074115,   2.0773566, 1.11, 0.95, 1.11, 0.95
    28, 'BUS 28      ',       400, 3,    1,    1, 1,   1.0449384,     1.77808, 1.05, 0.95, 1.05, 0.95
    29, 'BUS 29      ',       400, 2,    1,    1, 1,   1.0449301,   1.7863243, 1.05, 0.95, 1.05, 0.95
    30, 'BUS 30      ',       220, 1,    1,    1, 1,   1.0766538,  -7.0072863, 1.11, 0.95, 1.11, 0.95
    31, 'BUS 31      ',       400, 1,    1,    1, 1,   1.0464577,  0.79967202, 1.05, 0.95, 1.05, 0.95
    32, 'BUS 32      ',       220, 1,    1,    1, 1,   1.0693388,  -6.9043214, 1.11, 0.95, 1.11, 0.95
    33, 'BUS 33      ',       220, 1,    1,    1, 1,     1.09915,  -1.7078575, 1.11, 0.95, 1.11, 0.95
    34, 'BUS 34      ',       220, 1,    1,    2, 1,        1.11,  -3.5435543, 1.11, 0.95, 1.11, 0.95
    35, 'BUS 35      ',       220, 1,    1,    2, 1,   1.0805053,  -4.3551196, 1.11, 0.95, 1.11, 0.95
    36, 'BUS 36      ',       220, 1,    1,    2, 1,   1.0969905,  -3.9054531, 1.11, 0.95, 1.11, 0.95
    37, 'BUS 37      ',       220, 1,    1,    2, 1,   1.0969464,  -3.9069642, 1.11, 0.95, 1.11, 0.95
    38, 'BUS 38      ',       220, 1,    1,    2, 1,   1.1002849,  -3.7899499, 1.11, 0.95, 1.11, 0.95
    39, 'BUS 39      ',       220, 1,    1,    2, 1,   1.1070837,  -3.9625528, 1.11, 0.95, 1.11, 0.95
    40, 'BUS 40      ',       220, 1,    1,    2, 1,   1.1070251,  -3.9655272, 1.11, 0.95, 1.11, 0.95
    41, 'BUS 41      ',       400, 1,    1,    2, 1,   1.0389057,  -3.8675125, 1.05, 0.95, 1.05, 0.95
    42, 'BUS 42      ',       220, 2,    1,    2, 1,   1.0843581,  -3.6251574, 1.11, 0.95, 1.11, 0.95
    43, 'BUS 43      ',       220, 2,    1,    2, 1,   1.0843882,  -3.6162162, 1.11, 0.95, 1.11, 0.95
    44, 'BUS 44      ',       400, 2,    1,    2, 1,   1.0495182,  -3.7143296, 1.05, 0.95, 1.05, 0.95
    45, 'BUS 45      ',       400, 1,    1,    2, 1,   1.0495379,  -3.7138534, 1.05, 0.95, 1.05, 0.95
    46, 'BUS 46      ',       220, 1,    1,    2, 1,   1.1065925,  -4.2521065, 1.11, 0.95, 1.11, 0.95
    47, 'BUS 47      ',       400, 1,    1,    2, 1,   1.0387693,  -6.4543224, 1.05, 0.95, 1.05, 0.95
    48, 'BUS 48      ',       400, 1,    1,    2, 1,   1.0387728,  -6.4585039, 1.05, 0.95, 1.05, 0.95
    49, 'BUS 49      ',       400, 1,    1,    2, 1,   1.0466528,  -3.6073314, 1.05, 0.95, 1.05, 0.95
    50, 'BUS 50      ',       220, 1,    1,    2, 1,   1.1003654,  -3.2193348, 1.11, 0.95, 1.11, 0.95
    51, 'BUS 51      ',       220, 1,    1,    2, 1,   1.1003403,  -3.2167735, 1.11, 0.95, 1.11, 0.95
    52, 'BUS 52      ',       400, 1,    1,    2, 1,   1.0477994,  -4.1910932, 1.05, 0.95, 1.05, 0.95
    53, 'BUS 53      ',       400, 1,    1,    2, 1,   1.0477959,  -4.1902534, 1.05, 0.95, 1.05, 0.95
    54, 'BUS 54      ',       220, 1,    1,    2, 1,   1.0977199,  -3.6115281, 1.11, 0.95, 1.11, 0.95
    55, 'BUS 55      ',       220, 2,    1,    2, 1,   1.0976897,  -3.6048105, 1.11, 0.95, 1.11, 0.95
    56, 'BUS 56      ',       400, 2,    1,    2, 1,    1.045932,  -3.7636954, 1.05, 0.95, 1.05, 0.95
    57, 'BUS 57      ',       400, 2,    1,    2, 1,   1.0459153,  -3.7671604, 1.05, 0.95, 1.05, 0.95
    58, 'BUS 58      ',       220, 2,    1,    2, 1,   1.0901945,  -3.8334578, 1.11, 0.95, 1.11, 0.95
    59, 'BUS 59      ',       220, 1,    1,    2, 1,   1.0902606,  -3.8309695, 1.11, 0.95, 1.11, 0.95
    60, 'BUS 60      ',       220, 1,    1,    2, 1,   1.1032085,  -4.3318607, 1.11, 0.95, 1.11, 0.95
    61, 'BUS 61      ',       220, 1,    1,    2, 1,   1.0898541,  -4.0841342, 1.11, 0.95, 1.11, 0.95
    62, 'BUS 62      ',       220, 1,    1,    2, 1,   1.0898184,  -4.0840559, 1.11, 0.95, 1.11, 0.95
    63, 'BUS 63      ',       400, 1,    1,    2, 1,   1.0375043,  -4.6163516, 1.05, 0.95, 1.05, 0.95
    64, 'BUS 64      ',       400, 1,    1,    2, 1,    1.037527,  -4.6243476, 1.05, 0.95, 1.05, 0.95
    65, 'BUS 65      ',       750, 1,    1,    2, 1,   1.0496172,  -4.5991852, 1.05,  0.9, 1.05,  0.9
    66, 'BUS 66      ',       220, 1,    1,    2, 1,   1.1011486,  -4.1127983, 1.11, 0.95, 1.11, 0.95
    67, 'BUS 67      ',       220, 1,    1,    2, 1,    1.101794,  -4.0223494, 1.11, 0.95, 1.11, 0.95
    68, 'BUS 68      ',       220, 1,    1,    2, 1,   1.0969502,  -2.7101621, 1.11, 0.95, 1.11, 0.95
    69, 'BUS 69      ',       220, 1,    1,    3, 1,   1.0999402,  -1.5148341, 1.11, 0.95, 1.11, 0.95
    70, 'BUS 70      ',       220, 1,    1,    3, 1,   1.1007297,  -4.4938609, 1.11, 0.95, 1.11, 0.95
    71, 'BUS 71      ',       220, 1,    1,    3, 1,   1.1007249,  -4.4925157, 1.11, 0.95, 1.11, 0.95
    72, 'BUS 72      ',       220, 1,    1,    3, 1,   1.0862997,  -4.3937257, 1.11, 0.95, 1.11, 0.95
    73, 'BUS 73      ',       220, 1,    1,    3, 1,    1.086311,  -4.3818206, 1.11, 0.95, 1.11, 0.95
    74, 'BUS 74      ',       220, 1,    1,    3, 1,   1.0950289,  -3.3714802, 1.11, 0.95, 1.11, 0.95
    75, 'BUS 75      ',       220, 1,    1,    3, 1,   1.0950083,  -3.3728031, 1.11, 0.95, 1.11, 0.95
    76, 'BUS 76      ',       220, 1,    1,    3, 1,   1.0811849,  -8.0356642, 1.11, 0.95, 1.11, 0.95
    77, 'BUS 77      ',       220, 1,    1,    3, 1,   1.0811784,  -8.0389669, 1.11, 0.95, 1.11, 0.95
    78, 'BUS 78      ',       220, 2,    1,    3, 1,   1.0878054,  -3.5711162, 1.11, 0.95, 1.11, 0.95
    79, 'BUS 79      ',       220, 2,    1,    3, 1,   1.0882992,  -4.1560165, 1.11, 0.95, 1.11, 0.95
    80, 'BUS 80      ',       220, 1,    1,    3, 1,   1.0872711,  -4.2559736, 1.11, 0.95, 1.11, 0.95
    81, 'BUS 81      ',       220, 1,    1,    3, 1,   1.0872656,  -4.2561554, 1.11, 0.95, 1.11, 0.95
    82, 'BUS 82      ',       400, 2,    1,    3, 1,    1.038756, -0.65564817, 1.05, 0.95, 1.05, 0.95
    83, 'BUS 83      ',       220, 1,    1,    3, 1,   1.1078773,  -2.5120288, 1.11, 0.95, 1.11, 0.95
    84, 'BUS 84      ',       220, 1,    1,    3, 1,   1.0915351,  -4.0744547, 1.11, 0.95, 1.11, 0.95
    85, 'BUS 85      ',       220, 1,    1,    3, 1,   1.0914976,  -4.0757816, 1.11, 0.95, 1.11, 0.95
    86, 'BUS 86      ',       220, 1,    1,    3, 1,   1.1005785,  -1.6592085, 1.11, 0.95, 1.11, 0.95
    87, 'BUS 87      ',       220, 1,    1,    3, 1,   1.1005774,  -1.6637056, 1.11, 0.95, 1.11, 0.95
    88, 'BUS 88      ',       220, 1,    1,    3, 1,   1.0865034,  -3.6181237, 1.11, 0.95, 1.11, 0.95
    89, 'BUS 89      ',       220, 1,    1,    3, 1,   1.0864764,  -3.6185168, 1.11, 0.95, 1.11, 0.95
    90, 'BUS 90      ',       220, 1,    1,    3, 1,    1.100397,  -1.2887863, 1.11, 0.95, 1.11, 0.95
    91, 'BUS 91      ',       220, 1,    1,    3, 1,   1.1004123,  -1.2922528, 1.11, 0.95, 1.11, 0.95
    92, 'BUS 92      ',       400, 1,    1,    3, 1,   1.0485753,   0.0470111, 1.05, 0.95, 1.05, 0.95
    93, 'BUS 93      ',       400, 1,    1,    3, 1,   1.0485662,  0.04600424, 1.05, 0.95, 1.05, 0.95
    94, 'BUS 94      ',       220, 1,    1,    3, 1,    1.089866,  -3.7168499, 1.11, 0.95, 1.11, 0.95
    95, 'BUS 95      ',       220, 1,    1,    3, 1,   1.0898885,  -3.7217981, 1.11, 0.95, 1.11, 0.95
    96, 'BUS 96      ',       220, 1,    1,    3, 1,   1.1006195,  -2.9440143, 1.11, 0.95, 1.11, 0.95
    97, 'BUS 97      ',       220, 1,    1,    3, 1,   1.1006611,  -2.9418413, 1.11, 0.95, 1.11, 0.95
    98, 'BUS 98      ',       220, 2,    1,    3, 1,   1.0911223,  -3.8143676, 1.11, 0.95, 1.11, 0.95
    99, 'BUS 99      ',       220, 1,    1,    3, 1,   1.0911428,  -3.8119524, 1.11, 0.95, 1.11, 0.95
   100, 'BUS 100     ',       220, 1,    1,    3, 1,   1.1007054,  -4.4923524, 1.11, 0.95, 1.11, 0.95
   101, 'BUS 101     ',       220, 1,    1,    3, 1,   1.1007103,   -4.493698, 1.11, 0.95, 1.11, 0.95
   102, 'BUS 102     ',       220, 1,    1,    3, 1,   1.0818145,  -7.4626411, 1.11, 0.95, 1.11, 0.95
   103, 'BUS 103     ',       220, 1,    1,    3, 1,   1.0818182,  -7.4522797, 1.11, 0.95, 1.11, 0.95
   104, 'BUS 104     ',       220, 2,    1,    3, 1,   1.0923127,  -4.0814397, 1.11, 0.95, 1.11, 0.95
   105, 'BUS 105     ',       220, 1,    1,    3, 1,   1.0922038,  -4.1003381, 1.11, 0.95, 1.11, 0.95
   106, 'BUS 106     ',       220, 2,    1,    3, 1,   1.0901045,  -3.3210431, 1.11, 0.95, 1.11, 0.95
   107, 'BUS 107     ',       220, 1,    1,    3, 1,   1.0900602,  -3.3207564, 1.11, 0.95, 1.11, 0.95
   108, 'BUS 108     ',       220, 1,    1,    3, 1,   1.0943977,  -3.3498601, 1.11, 0.95, 1.11, 0.95
   109, 'BUS 109     ',       220, 1,    1,    3, 1,   1.0944125,  -3.3570878, 1.11, 0.95, 1.11, 0.95
   110, 'BUS 110     ',       220, 1,    1,    3, 1,   1.0856816,  -4.6384324, 1.11, 0.95, 1.11, 0.95
   111, 'BUS 111     ',       220, 1,    1,    3, 1,   1.0876704,  -4.1208111, 1.11, 0.95, 1.11, 0.95
   112, 'BUS 112     ',       220, 1,    1,    3, 1,   1.0876767,    -4.12152, 1.11, 0.95, 1.11, 0.95
   113, 'BUS 113     ',       220, 1,    1,    3, 1,   1.0866617,  -4.2664831, 1.11, 0.95, 1.11, 0.95
   114, 'BUS 114     ',       220, 1,    1,    3, 1,   1.0866683,  -4.2613941, 1.11, 0.95, 1.11, 0.95
   115, 'BUS 115     ',       400, 1,    1,    3, 1,   1.0366664,   -2.111324, 1.05, 0.95, 1.05, 0.95
   116, 'BUS 116     ',       220, 1,    1,    3, 1,    1.089168,  -3.8412547, 1.11, 0.95, 1.11, 0.95
   117, 'BUS 117     ',       220, 2,    1,    3, 1,   1.0891509,  -3.8318891, 1.11, 0.95, 1.11, 0.95
   118, 'BUS 118     ',       220, 1,    1,    3, 1,   1.0883397,  -4.4254886, 1.11, 0.95, 1.11, 0.95
   119, 'BUS 119     ',       220, 1,    1,    3, 1,   1.0883542,  -4.4242539, 1.11, 0.95, 1.11, 0.95
   120, 'BUS 120     ',       400, 1,    1,    3, 1,   1.0470801,  -3.9626713, 1.05, 0.95, 1.05, 0.95
   121, 'BUS 121     ',       400, 1,    1,    3, 1,   1.0471181,  -3.9587483, 1.05, 0.95, 1.05, 0.95
   122, 'BUS 122     ',       400, 1,    1,    3, 1,    1.043056,  -1.9199464, 1.05, 0.95, 1.05, 0.95
   123, 'BUS 123     ',       400, 1,    1,    3, 1,   1.0431047,  -1.9169615, 1.05, 0.95, 1.05, 0.95
   124, 'BUS 124     ',       220, 1,    1,    3, 1,   1.0851196,   -4.710497, 1.11, 0.95, 1.11, 0.95
   125, 'BUS 125     ',       220, 1,    1,    3, 1,   1.0979375,  -3.1116592, 1.11, 0.95, 1.11, 0.95
   126, 'BUS 126     ',       220, 2,    1,    3, 1,   1.0977572,  -3.1061652, 1.11, 0.95, 1.11, 0.95
   127, 'BUS 127     ',       400, 2,    1,    3, 1,     1.03145,  -1.7713769, 1.05, 0.95, 1.05, 0.95
   128, 'BUS 128     ',       400, 1,    1,    3, 1,   1.0313793,  -1.7757389, 1.05, 0.95, 1.05, 0.95
   129, 'BUS 129     ',       220, 1,    1,    3, 1,   1.1004705,   -1.753404, 1.11, 0.95, 1.11, 0.95
   130, 'BUS 130     ',       220, 1,    1,    3, 1,   1.1004246,  -1.7541935, 1.11, 0.95, 1.11, 0.95
   131, 'BUS 131     ',       220, 1,    1,    3, 1,   1.0997933,  -1.6360908, 1.11, 0.95, 1.11, 0.95
   132, 'BUS 132     ',       220, 2,    1,    3, 1,    1.080568,  -8.4583986, 1.11, 0.95, 1.11, 0.95
   133, 'BUS 133     ',       220, 2,    1,    3, 1,    1.080567,  -8.4631219, 1.11, 0.95, 1.11, 0.95
   134, 'BUS 134     ',       220, 1,    1,    4, 1,   1.1010272,  -2.5005347, 1.11, 0.95, 1.11, 0.95
   135, 'BUS 135     ',       220, 2,    1,    4, 1,   1.1010531,  -2.4977759, 1.11, 0.95, 1.11, 0.95
   136, 'BUS 136     ',       220, 1,    1,    4, 1,   1.1090223,   -2.907547, 1.11, 0.95, 1.11, 0.95
   137, 'BUS 137     ',       220, 1,    1,    4, 1,   1.1084034,  -2.2905373, 1.11, 0.95, 1.11, 0.95
   138, 'BUS 138     ',       400, 1,    1,    4, 1,   1.0335809,  -2.2051876, 1.05, 0.95, 1.05, 0.95
   139, 'BUS 139     ',       400, 1,    1,    4, 1,   1.0336006,     -2.2078, 1.05, 0.95, 1.05, 0.95
   140, 'BUS 140     ',       220, 1,    1,    4, 1,    1.101858,  -7.2447288, 1.11, 0.95, 1.11, 0.95
   141, 'BUS 141     ',       220, 1,    1,    4, 1,   1.0937023,  -6.1672989, 1.11, 0.95, 1.11, 0.95
   142, 'BUS 142     ',       220, 1,    1,    4, 1,   1.0937023,  -6.1672989, 1.11, 0.95, 1.11, 0.95
   143, 'BUS 143     ',       220, 1,    1,    4, 1,    1.102517,  -6.0408918, 1.11, 0.95, 1.11, 0.95
   144, 'BUS 144     ',       220, 1,    1,    4, 1,   1.1064125,  -3.4132987, 1.11, 0.95, 1.11, 0.95
   145, 'BUS 145     ',       220, 1,    1,    4, 1,   1.1064125,  -3.4132987, 1.11, 0.95, 1.11, 0.95
   146, 'BUS 146     ',       220, 1,    1,    4, 1,   1.0990818,   -4.310413, 1.11, 0.95, 1.11, 0.95
   147, 'BUS 147     ',       220, 1,    1,    4, 1,   1.0991439,  -4.3087158, 1.11, 0.95, 1.11, 0.95
   148, 'BUS 148     ',       220, 2,    1,    4, 1,   1.0964007,  -5.3203788, 1.11, 0.95, 1.11, 0.95
   149, 'BUS 149     ',       220, 1,    1,    4, 1,   1.0964815,  -5.3319086, 1.11, 0.95, 1.11, 0.95
   150, 'BUS 150     ',       400, 2,    1,    4, 1,   1.0336749,  -8.0337652, 1.05, 0.95, 1.05, 0.95
   151, 'BUS 151     ',       400, 2,    1,    4, 1,   1.0336702,  -8.0315014, 1.05, 0.95, 1.05, 0.95
   152, 'BUS 152     ',       220, 1,    1,    4, 1,    1.098391,  -6.7794234, 1.11, 0.95, 1.11, 0.95
   153, 'BUS 153     ',       220, 1,    1,    4, 1,   1.1077538,  -4.3612447, 1.11, 0.95, 1.11, 0.95
   154, 'BUS 154     ',       220, 1,    1,    4, 1,   1.1077553,  -4.3636195, 1.11, 0.95, 1.11, 0.95
   155, 'BUS 155     ',       220, 2,    1,    4, 1,   1.1054692, -0.91838753, 1.11, 0.95, 1.11, 0.95
   156, 'BUS 156     ',       220, 2,    1,    4, 1,   1.1054826, -0.91263647, 1.11, 0.95, 1.11, 0.95
   157, 'BUS 157     ',       400, 1,    1,    4, 1,   1.0208966, -0.02424863, 1.05, 0.95, 1.05, 0.95
   158, 'BUS 158     ',       400, 2,    1,    4, 1,   1.0208614, -0.01970188, 1.05, 0.95, 1.05, 0.95
   159, 'BUS 159     ',       220, 1,    1,    4, 1,   1.0982403,  -6.1687192, 1.11, 0.95, 1.11, 0.95
   160, 'BUS 160     ',       220, 1,    1,    4, 1,   1.0982403,  -6.1687192, 1.11, 0.95, 1.11, 0.95
   161, 'BUS 161     ',       400, 1,    1,    4, 1,   1.0381031,   -2.850795, 1.05, 0.95, 1.05, 0.95
   162, 'BUS 162     ',       400, 1,    1,    4, 1,   1.0380799,  -2.3257801, 1.05, 0.95, 1.05, 0.95
   163, 'BUS 163     ',       400, 1,    1,    4, 1,   1.0380786,  -2.3254376, 1.05, 0.95, 1.05, 0.95
   164, 'BUS 164     ',       220, 2,    1,    4, 1,   1.1005618,  -4.4219209, 1.11, 0.95, 1.11, 0.95
   165, 'BUS 165     ',       220, 2,    1,    4, 1,   1.1005897,  -4.4365739, 1.11, 0.95, 1.11, 0.95
   166, 'BUS 166     ',       220, 1,    1,    4, 1,   1.1005897,  -4.4365739, 1.11, 0.95, 1.11, 0.95
   167, 'BUS 167     ',       220, 1,    1,    4, 1,   1.1078578,  -11.188191, 1.11, 0.95, 1.11, 0.95
   168, 'BUS 168     ',       220, 1,    1,    4, 1,   1.0930144,  -6.2258786, 1.11, 0.95, 1.11, 0.95
   169, 'BUS 169     ',       220, 1,    1,    4, 1,   1.1079187,  -7.7992584, 1.11, 0.95, 1.11, 0.95
   170, 'BUS 170     ',       220, 1,    1,    4, 1,     1.10792,  -7.8048332, 1.11, 0.95, 1.11, 0.95
   171, 'BUS 171     ',       400, 1,    1,    4, 1,   1.0273607,  -8.0768261, 1.05, 0.95, 1.05, 0.95
   172, 'BUS 172     ',       400, 1,    1,    4, 1,   1.0273607,  -8.0768261, 1.05, 0.95, 1.05, 0.95
   173, 'BUS 173     ',       220, 1,    1,    4, 1,   1.0972304,  -4.9313669, 1.11, 0.95, 1.11, 0.95
   174, 'BUS 174     ',       220, 1,    1,    4, 1,   1.0972427,  -4.9292116, 1.11, 0.95, 1.11, 0.95
   175, 'BUS 175     ',       220, 1,    1,    4, 1,   1.0936299,  -6.2290183, 1.11, 0.95, 1.11, 0.95
   176, 'BUS 176     ',       220, 1,    1,    4, 1,   1.1086642,  -2.8518944, 1.11, 0.95, 1.11, 0.95
   177, 'BUS 177     ',       220, 1,    1,    4, 1,   1.1086718,  -2.8506968, 1.11, 0.95, 1.11, 0.95
   178, 'BUS 178     ',       220, 1,    1,    4, 1,        1.11,  -3.0395622, 1.11, 0.95, 1.11, 0.95
   179, 'BUS 179     ',       220, 1,    1,    4, 1,        1.11,  -3.0395622, 1.11, 0.95, 1.11, 0.95
   180, 'BUS 180     ',       220, 2,    1,    4, 1,        1.11,  -3.4532746, 1.11, 0.95, 1.11, 0.95
   181, 'BUS 181     ',       220, 1,    1,    4, 1,   1.0976593,  -5.2093053, 1.11, 0.95, 1.11, 0.95
   182, 'BUS 182     ',       220, 1,    1,    5, 1,   1.0906174,  -11.550683, 1.11, 0.95, 1.11, 0.95
   183, 'BUS 183     ',       220, 1,    1,    5, 1,     1.10155,  -14.207909, 1.11, 0.95, 1.11, 0.95
   184, 'BUS 184     ',       400, 1,    1,    5, 1,   1.0352196,  -13.758822, 1.05, 0.95, 1.05, 0.95
   185, 'BUS 185     ',       400, 1,    1,    5, 1,   1.0352336,  -13.750658, 1.05, 0.95, 1.05, 0.95
   186, 'BUS 186     ',       400, 1,    1,    5, 1,    1.035852,  -16.309541, 1.05, 0.95, 1.05, 0.95
   187, 'BUS 187     ',       400, 1,    1,    5, 1,   1.0358756,  -16.315051, 1.05, 0.95, 1.05, 0.95
   188, 'BUS 188     ',       220, 1,    1,    5, 1,   1.1013411,   -15.79941, 1.11, 0.95, 1.11, 0.95
   189, 'BUS 189     ',       220, 1,    1,    5, 1,   1.1013634,  -15.799937, 1.11, 0.95, 1.11, 0.95
   190, 'BUS 190     ',       220, 1,    1,    5, 1,   1.0967955,  -13.647542, 1.11, 0.95, 1.11, 0.95
   191, 'BUS 191     ',       220, 1,    1,    5, 1,   1.0967841,  -13.641326, 1.11, 0.95, 1.11, 0.95
   192, 'BUS 192     ',       400, 1,    1,    5, 1,   1.0251116,  -11.536722, 1.05, 0.95, 1.05, 0.95
   193, 'BUS 193     ',       220, 1,    1,    5, 1,   1.0911228,  -11.119661, 1.11, 0.95, 1.11, 0.95
   194, 'BUS 194     ',       220, 1,    1,    5, 1,    1.091116,  -11.118625, 1.11, 0.95, 1.11, 0.95
   195, 'BUS 195     ',       400, 1,    1,    5, 1,   1.0431001,  -16.235603, 1.05, 0.95, 1.05, 0.95
   196, 'BUS 196     ',       400, 1,    1,    5, 1,    1.043097,    -16.2353, 1.05, 0.95, 1.05, 0.95
   197, 'BUS 197     ',       220, 1,    1,    5, 1,   1.0714251,   -13.77591, 1.11, 0.95, 1.11, 0.95
   198, 'BUS 198     ',       220, 1,    1,    5, 1,   1.0714109,   -13.77467, 1.11, 0.95, 1.11, 0.95
   199, 'BUS 199     ',       400, 1,    1,    5, 1,   1.0269754,  -15.550639, 1.05, 0.95, 1.05, 0.95
   200, 'BUS 200     ',       400, 1,    1,    5, 1,   1.0270217,  -15.543467, 1.05, 0.95, 1.05, 0.95
...
0 / END OF BUS DATA, BEGIN LOAD DATA
    26,  1, 1,    1,    1,    48.178,    65.087, 0, 0, 0, 0, 1, 1, 0
    27,  1, 1,    1,    1,    28.145,    35.087, 0, 0, 0, 0, 1, 1, 0
    29,  1, 1,    1,    1,    44.698,        72, 0, 0, 0, 0, 1, 1, 0
    42,  1, 1,    1,    2,        13,         0, 0, 0, 0, 0, 1, 1, 0
    43,  1, 1,    1,    2,        13,         0, 0, 0, 0, 0, 1, 1, 0
    44,  1, 1,    1,    2,        25,         0, 0, 0, 0, 0, 1, 1, 0
    55,  1, 1,    1,    2,        13,         0, 0, 0, 0, 0, 1, 1, 0
    56,  1, 1,    1,    2,        13,         0, 0, 0, 0, 0, 1, 1, 0
    57,  1, 1,    1,    2,        13,         0, 0, 0, 0, 0, 1, 1, 0
    58,  1, 1,    1,    2,    67.882,    25.273, 0, 0, 0, 0, 1, 1, 0
    78,  1, 1,    1,    3,        27,        70, 0, 0, 0, 0, 1, 1, 0
    79,  1, 1,    1,    3,         9,        21, 0, 0, 0, 0, 1, 1, 0
    80,  1, 1,    1,    3,     4.602,      0.91, 0, 0, 0, 0, 1, 1, 0
    82,  1, 1,    1,    3,        18,        57, 0, 0, 0, 0, 1, 1, 0
    86,  1, 1,    1,    3,    32.969,      -8.4, 0, 0, 0, 0, 1, 1, 0
    98,  1, 1,    1,    3,     9.938,      2.19, 0, 0, 0, 0, 1, 1, 0
    99,  1, 1,    1,    3,    16.652,     3.293, 0, 0, 0, 0, 1, 1, 0
   104,  1, 1,    1,    3,        14,        40, 0, 0, 0, 0, 1, 1, 0
   106,  1, 1,    1,    3,         7,        18, 0, 0, 0, 0, 1, 1, 0
   108,  1, 1,    1,    3,     27.63,     5.872, 0, 0, 0, 0, 1, 1, 0
   109,  1, 1,    1,    3,    17.522,     3.337, 0, 0, 0, 0, 1, 1, 0
   117,  1, 1,    1,    3,         8,        15, 0, 0, 0, 0, 1, 1, 0
   125,  1, 1,    1,    3,     2.929,     0.867, 0, 0, 0, 0, 1, 1, 0
   126,  1, 1,    1,    3,    19.898,    27.707, 0, 0, 0, 0, 1, 1, 0
   127,  1, 1,    1,    3,      12.2,      25.8, 0, 0, 0, 0, 1, 1, 0
   132,  1, 1,    1,    3,       137,         9, 0, 0, 0, 0, 1, 1, 0
   133,  1, 1,    1,    3,       137,         6, 0, 0, 0, 0, 1, 1, 0
   134,  1, 1,    1,    4,     0.515,     1.973, 0, 0, 0, 0, 1, 1, 0
   135,  1, 1,    1,    4,    15.242,    14.277, 0, 0, 0, 0, 1, 1, 0
   146,  1, 1,    1,    4,     7.636,    13.257, 0, 0, 0, 0, 1, 1, 0
   148,  1, 1,    1,    4,     10.87,    14.867, 0, 0, 0, 0, 1, 1, 0
   150,  1, 1,    1,    4,    10.989,        15, 0, 0, 0, 0, 1, 1, 0
   151,  1, 1,    1,    4,    20.672,    21.479, 0, 0, 0, 0, 1, 1, 0
   156,  1, 1,    1,    4,     13.87,        33, 0, 0, 0, 0, 1, 1, 0
   158,  1, 1,    1,    4,     9.989,        25, 0, 0, 0, 0, 1, 1, 0
   164,  1, 1,    1,    4,    11.664,        11, 0, 0, 0, 0, 1, 1, 0
   165,  1, 1,    1,    4,    11.564,    10.667, 0, 0, 0, 0, 1, 1, 0
   180,  1, 1,    1,    4,      3.13,       1.5, 0, 0, 0, 0, 1, 1, 0
   205,  1, 1,    1,    5,       400,        60, 0, 0, 0, 0, 1, 1, 0
   209,  1, 1,    1,    1,     8.114,         2, 0, 0, 0, 0, 1, 1, 0
   210,  1, 1,    1,    1,     2.705,       0.5, 0, 0, 0, 0, 1, 1, 0
   211,  1, 1,    1,    1,     2.705,         2, 0, 0, 0, 0, 1, 1, 0
   212,  1, 1,    1,    1,     4.688,       4.6, 0, 0, 0, 0, 1, 1, 0
   213,  1, 1,    1,    1,     1.623,       0.4, 0, 0, 0, 0, 1, 1, 0
   214,  1, 1,    1,    1,     1.172,       0.3, 0, 0, 0, 0, 1, 1, 0
   215,  1, 1,    1,    1,         6,       8.8, 0, 0, 0, 0, 1, 1, 0
   216,  1, 1,    1,    1,     4.959,       0.5, 0, 0, 0, 0, 1, 1, 0
   217,  1, 1,    1,    1,     4.057,         1, 0, 0, 0, 0, 1, 1, 0
   218,  1, 1,    1,    1,     6.762,       1.5, 0, 0, 0, 0, 1, 1, 0
   219,  1, 1,    1,    1,     5.139,       2.8, 0, 0, 0, 0, 1, 1, 0
   220,  1, 1,    1,    1,      5.41,       1.5, 0, 0, 0, 0, 1, 1, 0
   222,  1, 1,    1,    1,     4.237,       1.7, 0, 0, 0, 0, 1, 1, 0
   223,  1, 1,    1,    1,     6.311,       1.4, 0, 0, 0, 0, 1, 1, 0
   224,  1, 1,    1,    1,     0.721,       0.1, 0, 0, 0, 0, 1, 1, 0
   225,  1, 1,    1,    1,     2.074,       0.4, 0, 0, 0, 0, 1, 1, 0
   226,  1, 1,    1,    1,     1.803,         0, 0, 0, 0, 0, 1, 1, 0
   227,  1, 1,    1,    1,     7.664,       1.5, 0, 0, 0, 0, 1, 1, 0
   228,  1, 1,    1,    1,     2.524,         1, 0, 0, 0, 0, 1, 1, 0
   229,  1, 1,    1,    1,     3.246,         1, 0, 0, 0, 0, 1, 1, 0
   230,  1, 1,    1,    1,     1.533,      0.78, 0, 0, 0, 0, 1, 1, 0
   231,  1, 1,    1,    1,     1.533,      0.78, 0, 0, 0, 0, 1, 1, 0
   232,  1, 1,    1,    1,     3.606,         1, 0, 0, 0, 0, 1, 1, 0
   233,  1, 1,    1,    1,     3.246,         1, 0, 0, 0, 0, 1, 1, 0
   234,  1, 1,    1,    1,     8.114,       0.5, 0, 0, 0, 0, 1, 1, 0
   235,  1, 1,    1,    1,     22.54,        23, 0, 0, 0, 0, 1, 1, 0
   236,  1, 1,    1,    1,     2.975,       0.5, 0, 0, 0, 0, 1, 1, 0
   237,  1, 1,    1,    1,     4.057,      1.78, 0, 0, 0, 0, 1, 1, 0
   238,  1, 1,    1,    1,     2.975,       0.6, 0, 0, 0, 0, 1, 1, 0
   239,  1, 1,    1,    1,     2.254,         1, 0, 0, 0, 0, 1, 1, 0
   241,  1, 1,    1,    1,     4.959,       0.8, 0, 0, 0, 0, 1, 1, 0
   242,  1, 1,    1,    1,     2.074,      0.83, 0, 0, 0, 0, 1, 1, 0
   243,  1, 1,    1,    1,     3.336,       0.4, 0, 0, 0, 0, 1, 1, 0
   244,  1, 1,    1,    1,     3.336,       0.4, 0, 0, 0, 0, 1, 1, 0
   245,  1, 1,    1,    1,     1.623,       1.5, 0, 0, 0, 0, 1, 1, 0
   248,  1, 1,    1,    1,     3.606,         1, 0, 0, 0, 0, 1, 1, 0
   249,  1, 1,    1,    1,     1.352,         0, 0, 0, 0, 0, 1, 1, 0
   250,  1, 1,    1,    1,     1.352,         0, 0, 0, 0, 0, 1, 1, 0
   251,  1, 1,    1,    1,     1.352,         0, 0, 0, 0, 0, 1, 1, 0
   252,  1, 1,    1,    1,     1.984,       0.3, 0, 0, 0, 0, 1, 1, 0
   253,  1, 1,    1,    1,     9.016,         5, 0, 0, 0, 0, 1, 1, 0
   254,  1, 1,    1,    1,     8.565,         4, 0, 0, 0, 0, 1, 1, 0
   255,  1, 1,    1,    1,      5.41,         1, 0, 0, 0, 0, 1, 1, 0
   256,  1, 1,    1,    1,     7.213,         1, 0, 0, 0, 0, 1, 1, 0
   257,  1, 1,    1,    1,     2.254,         0, 0, 0, 0, 0, 1, 1, 0
   258,  1, 1,    1,    1,     2.029,       0.5, 0, 0, 0, 0, 1, 1, 0
   259,  1, 1,    1,    1,     2.029,       0.5, 0, 0, 0, 0, 1, 1, 0
   260,  1, 1,    1,    1,     4.418,      1.78, 0, 0, 0, 0, 1, 1, 0
   261,  1, 1,    1,    1,     2.254,         0, 0, 0, 0, 0, 1, 1, 0
   262,  1, 1,    1,    1,     4.869,       2.1, 0, 0, 0, 0, 1, 1, 0
   264,  1, 1,    1,    1,     0.721,       0.8, 0, 0, 0, 0, 1, 1, 0
   265,  1, 1,    1,    1,    19.835,        20, 0, 0, 0, 0, 1, 1, 0
   266,  1, 1,    1,    1,    31.555,        33, 0, 0, 0, 0, 1, 1, 0
   267,  1, 1,    1,    1,    24.344,       0.9, 0, 0, 0, 0, 1, 1, 0
   268,  1, 1,    1,    1,     0.902,         0, 0, 0, 0, 0, 1, 1, 0
   269,  1, 1,    1,    1,     3.967,       0.1, 0, 0, 0, 0, 1, 1, 0
   270,  1, 1,    1,    1,     3.336,       1.4, 0, 0, 0, 0, 1, 1, 0
   271,  1, 1,    1,    1,     4.508,         1, 0, 0, 0, 0, 1, 1, 0
   272,  1, 1,    1,    1,     4.058,       0.5, 0, 0, 0, 0, 1, 1, 0
   273,  1, 1,    1,    1,     5.229,      1.45, 0, 0, 0, 0, 1, 1, 0
   274,  1, 1,    1,    1,      0.36,       0.1, 0, 0, 0, 0, 1, 1, 0
   275,  1, 1,    1,    1,      0.09,      0.03, 0, 0, 0, 0, 1, 1, 0
   277,  1, 1,    1,    1,     6.311,      3.59, 0, 0, 0, 0, 1, 1, 0
   279,  1, 1,    1,    1,     3.606,       1.4, 0, 0, 0, 0, 1, 1, 0
   280,  1, 1,    1,    1,     1.352,       0.5, 0, 0, 0, 0, 1, 1, 0
   281,  1, 1,    1,    1,     2.705,         0, 0, 0, 0, 0, 1, 1, 0
   282,  1, 1,    1,    1,     2.705,         1, 0, 0, 0, 0, 1, 1, 0
   283,  1, 1,    1,    1,     3.606,         1, 0, 0, 0, 0, 1, 1, 0
   284,  1, 1,    1,    1,    16.229,        16, 0, 0, 0, 0, 1, 1, 0
   285,  1, 1,    1,    1,    40.572,        42, 0, 0, 0, 0, 1, 1, 0
   286,  1, 1,    1,    1,     0.992,       0.3, 0, 0, 0, 0, 1, 1, 0
   288,  1, 1,    1,    1,     4.779,       2.1, 0, 0, 0, 0, 1, 1, 0
   289,  1, 1,    1,    1,     4.959,       1.2, 0, 0, 0, 0, 1, 1, 0
   290,  1, 1,    1,    1,     4.508,       1.5, 0, 0, 0, 0, 1, 1, 0
   291,  1, 1,    1,    1,     2.705,         1, 0, 0, 0, 0, 1, 1, 0
   292,  1, 1,    1,    1,     2.524,         2, 0, 0, 0, 0, 1, 1, 0
   293,  1, 1,    1,    1,     1.443,       0.4, 0, 0, 0, 0, 1, 1, 0
   294,  1, 1,    1,    1,     9.466,       4.2, 0, 0, 0, 0, 1, 1, 0
   295,  1, 1,    1,    1,     7.213,       2.5, 0, 0, 0, 0, 1, 1, 0
   296,  1, 1,    1,    1,     2.795,      1.13, 0, 0, 0, 0, 1, 1, 0
   297,  1, 1,    1,    1,     1.406,       1.1, 0, 0, 0, 0, 1, 1, 0
   298,  1, 1,    1,    1,     2.164,       0.4, 0, 0, 0, 0, 1, 1, 0
   299,  1, 1,    1,    1,     3.787,       0.5, 0, 0, 0, 0, 1, 1, 0
   300,  1, 1,    1,    1,     3.606,       0.7, 0, 0, 0, 0, 1, 1, 0
   301,  1, 1,    1,    1,     2.885,      1.27, 0, 0, 0, 0, 1, 1, 0
   302,  1, 1,    1,    1,     4.598,      1.85, 0, 0, 0, 0, 1, 1, 0
   303,  1, 1,    1,    1,     5.409,         1, 0, 0, 0, 0, 1, 1, 0
   305,  1, 1,    1,    1,     2.705,         1, 0, 0, 0, 0, 1, 1, 0
   306,  1, 1,    1,    1,      5.86,      2.57, 0, 0, 0, 0, 1, 1, 0
   307,  1, 1,    1,    1,     3.877,      1.56, 0, 0, 0, 0, 1, 1, 0
   308,  1, 1,    1,    1,     5.229,      2.11, 0, 0, 0, 0, 1, 1, 0
   309,  1, 1,    1,    1,     6.401,      2.58, 0, 0, 0, 0, 1, 1, 0
   310,  1, 1,    1,    1,     8.934,      4.46, 0, 0, 0, 0, 1, 1, 0
   311,  1, 1,    1,    1,     0.847,      0.56, 0, 0, 0, 0, 1, 1, 0
   312,  1, 1,    1,    1,      7.57,      3.66, 0, 0, 0, 0, 1, 1, 0
   314,  1, 1,    1,    1,     4.173,      2.02, 0, 0, 0, 0, 1, 1, 0
   315,  1, 1,    1,    1,     9.025,      4.72, 0, 0, 0, 0, 1, 1, 0
   316,  1, 1,    1,    1,     4.418,       0.6, 0, 0, 0, 0, 1, 1, 0
   317,  1, 1,    1,    1,     1.352,       0.5, 0, 0, 0, 0, 1, 1, 0
   318,  1, 1,    1,    1,     2.254,         1, 0, 0, 0, 0, 1, 1, 0
   319,  1, 1,    1,    1,     2.254,      1.25, 0, 0, 0, 0, 1, 1, 0
   320,  1, 1,    1,    1,     3.606,      1.25, 0, 0, 0, 0, 1, 1, 0
   321,  1, 1,    1,    1,     4.057,         2, 0, 0, 0, 0, 1, 1, 0
   322,  1, 1,    1,    1,     4.057,      1.63, 0, 0, 0, 0, 1, 1, 0
   323,  1, 1,    1,    1,     7.213,       2.9, 0, 0, 0, 0, 1, 1, 0
   324,  1, 1,    1,    1,     4.959,       2.5, 0, 0, 0, 0, 1, 1, 0
   325,  1, 1,    1,    1,     6.582,      2.89, 0, 0, 0, 0, 1, 1, 0
   326,  1, 1,    1,    1,     2.344,      0.94, 0, 0, 0, 0, 1, 1, 0
   327,  1, 1,    1,    1,     2.344,      0.94, 0, 0, 0, 0, 1, 1, 0
   328,  1, 1,    1,    1,     5.409,       2.5, 0, 0, 0, 0, 1, 1, 0
   329,  1, 1,    1,    1,     7.663,         2, 0, 0, 0, 0, 1, 1, 0
   330,  1, 1,    1,    1,     5.139,      2.07, 0, 0, 0, 0, 1, 1, 0
   331,  1, 1,    1,    1,     3.606,       1.4, 0, 0, 0, 0, 1, 1, 0
   332,  1, 1,    1,    1,     2.254,       0.8, 0, 0, 0, 0, 1, 1, 0
   333,  1, 1,    1,    1,    11.451,      4.61, 0, 0, 0, 0, 1, 1, 0
   334,  1, 1,    1,    1,     6.312,         1, 0, 0, 0, 0, 1, 1, 0
   335,  1, 1,    1,    1,     1.803,       0.5, 0, 0, 0, 0, 1, 1, 0
   336,  1, 1,    1,    1,     3.606,       0.6, 0, 0, 0, 0, 1, 1, 0
   337,  1, 1,    1,    1,     2.164,       0.2, 0, 0, 0, 0, 1, 1, 0
   338,  1, 1,    1,    1,     3.606,      1.45, 0, 0, 0, 0, 1, 1, 0
   339,  1, 1,    1,    1,      5.41,       2.4, 0, 0, 0, 0, 1, 1, 0
   340,  1, 1,    1,    1,     4.959,      1.65, 0, 0, 0, 0, 1, 1, 0
   341,  1, 1,    1,    1,     4.959,      1.65, 0, 0, 0, 0, 1, 1, 0
   342,  1, 1,    1,    1,     1.803,       0.5, 0, 0, 0, 0, 1, 1, 0
   345,  1, 1,    1,    1,     7.212,       3.5, 0, 0, 0, 0, 1, 1, 0
   346,  1, 1,    1,    1,     6.762,       2.5, 0, 0, 0, 0, 1, 1, 0
   348,  1, 1,    1,    1,     2.704,       0.5, 0, 0, 0, 0, 1, 1, 0
   349,  1, 1,    1,    1,     3.606,         1, 0, 0, 0, 0, 1, 1, 0
   350,  1, 1,    1,    1,     3.787,       0.5, 0, 0, 0, 0, 1, 1, 0
   351,  1, 1,    1,    1,       5.5,      2.21, 0, 0, 0, 0, 1, 1, 0
   352,  1, 1,    1,    1,     4.328,       1.2, 0, 0, 0, 0, 1, 1, 0
   354,  1, 1,    1,    1,     2.705,         1, 0, 0, 0, 0, 1, 1, 0
   357,  1, 1,    1,    1,     0.902,       0.3, 0, 0, 0, 0, 1, 1, 0
   359,  1, 1,    1,    1,     3.156,       1.2, 0, 0, 0, 0, 1, 1, 0
   360,  1, 1,    1,    1,     4.959,       1.8, 0, 0, 0, 0, 1, 1, 0
   361,  1, 1,    1,    1,     4.327,       0.8, 0, 0, 0, 0, 1, 1, 0
   364,  1, 1,    1,    1,     3.607,       0.6, 0, 0, 0, 0, 1, 1, 0
   365,  1, 1,    1,    1,     2.705,       0.8, 0, 0, 0, 0, 1, 1, 0
   366,  1, 1,    1,    1,    40.572,        10, 0, 0, 0, 0, 1, 1, 0
   367,  1, 1,    1,    1,    40.572,        10, 0, 0, 0, 0, 1, 1, 0
   368,  1, 1,    1,    1,    40.572,        10, 0, 0, 0, 0, 1, 1, 0
   369,  1, 1,    1,    1,    40.572,        10, 0, 0, 0, 0, 1, 1, 0
   371,  1, 1,    1,    1,     5.229,       0.8, 0, 0, 0, 0, 1, 1, 0
   372,  1, 1,    1,    1,    10.819,       0.5, 0, 0, 0, 0, 1, 1, 0
   373,  1, 1,    1,    1,     3.156,         1, 0, 0, 0, 0, 1, 1, 0
   375,  1, 1,    1,    1,     9.016,       2.5, 0, 0, 0, 0, 1, 1, 0
   376,  1, 1,    1,    1,     1.262,       0.4, 0, 0, 0, 0, 1, 1, 0
   377,  1, 1,    1,    1,     1.533,       0.6, 0, 0, 0, 0, 1, 1, 0
   378,  1, 1,    1,    1,     4.508,         1, 0, 0, 0, 0, 1, 1, 0
   379,  1, 1,    1,    1,     4.057,       0.5, 0, 0, 0, 0, 1, 1, 0
   380,  1, 1,    1,    1,     3.606,       1.1, 0, 0, 0, 0, 1, 1, 0
   381,  1, 1,    1,    1,     3.787,       0.8, 0, 0, 0, 0, 1, 1, 0
   382,  1, 1,    1,    1,     1.803,         1, 0, 0, 0, 0, 1, 1, 0
   383,  1, 1,    1,    1,     8.295,         2, 0, 0, 0, 0, 1, 1, 0
   384,  1, 1,    1,    1,      5.41,       1.5, 0, 0, 0, 0, 1, 1, 0
   385,  1, 1,    1,    1,     10.82,       3.5, 0, 0, 0, 0, 1, 1, 0
   388,  1, 1,    1,    1,     1.803,       0.5, 0, 0, 0, 0, 1, 1, 0
   389,  1, 1,    1,    1,      5.59,       2.8, 0, 0, 0, 0, 1, 1, 0
   390,  1, 1,    1,    1,     7.303,      2.94, 0, 0, 0, 0, 1, 1, 0
   391,  1, 1,    1,    1,     3.967,       1.7, 0, 0, 0, 0, 1, 1, 0
   392,  1, 1,    1,    1,     6.762,      3.42, 0, 0, 0, 0, 1, 1, 0
...
0 / END OF LOAD DATA, BEGIN FIXED SHUNT DATA
     8, 1, 1,       0,     -50
    14, 1, 1,       0,     -50
    25, 1, 1,       0,     -50
   199, 1, 1,       0,    -117
  2040, 1, 1,  -0.013,   -0.04
0 / END OF FIXED SHUNT DATA, BEGIN GENERATOR DATA
    17,  1,         0,         0,       120,       -22,  1.07567, 0,   241.9, 0, 1, 0, 0, 1, 0, 100,       210,       140, 1, 1, 0, 1, 0, 1, 0, 1, 0, 1
    17,  2,         0,         0,       120,       -22,  1.07567, 0,   233.2, 0, 1, 0, 0, 1, 0, 100,       200,       140, 1, 1, 0, 1, 0, 1, 0, 1, 0, 1
    26,  1,       370,   2.61068,       190,       -19,  1.08527, 0,   415.9, 0, 1, 0, 0, 1, 1, 100,       370,       290, 1, 1, 0, 1, 0, 1, 0, 1, 0, 1
    27,  1,       360,       -19,       190,       -19,  1.08827, 0,   407.1, 0, 1, 0, 0, 1, 1, 100,       360,       290, 1, 1, 0, 1, 0, 1, 0, 1, 0, 1
    27,  2,         0,         0,       190,       -19,  1.08827, 0,   407.1, 0, 1, 0, 0, 1, 0, 100,       360,       290, 1, 1, 0, 1, 0, 1, 0, 1, 0, 1
    27,  3,         0,         0,       190,       -19,  1.08827, 0,   415.9, 0, 1, 0, 0, 1, 0, 100,       370,       290, 1, 1, 0, 1, 0, 1, 0, 1, 0, 1
    26,  2,       370,   2.61068,       190,       -19,  1.08527, 0,   415.9, 0, 1, 0, 0, 1, 1, 100,       370,       290, 1, 1, 0, 1, 0, 1, 0, 1, 0, 1
    28,  1,       370,       -19,       190,       -19,    1.027, 0,   415.9, 0, 1, 0, 0, 1, 1, 100,       370,       290, 1, 1, 0, 1, 0, 1, 0, 1, 0, 1
    28,  2,         0,         0,       190,       -19,    1.027, 0,   415.9, 0, 1, 0, 0, 1, 0, 100,       370,       290, 1, 1, 0, 1, 0, 1, 0, 1, 0, 1
    28,  3,         0,         0,       190,       -19,    1.027, 0,   415.9, 0, 1, 0, 0, 1, 0, 100,       370,       290, 1, 1, 0, 1, 0, 1, 0, 1, 0, 1
    29,  1,         0,         0,       190,       -19,    1.027, 0,   415.9, 0, 1, 0, 0, 1, 0, 100,       370,       290, 1, 1, 0, 1, 0, 1, 0, 1, 0, 1
    29,  2,       370,       -19,       190,       -19,    1.027, 0,   415.9, 0, 1, 0, 0, 1, 1, 100,       370,       290, 1, 1, 0, 1, 0, 1, 0, 1, 0, 1
    29,  3,       370,       -19,       190,       -19,    1.027, 0,   415.9, 0, 1, 0, 0, 1, 1, 100,       370,       290, 1, 1, 0, 1, 0, 1, 0, 1, 0, 1
    42,  1,       130,       -34,       135,       -34,  1.09086, 0,   253.9, 0, 1, 0, 0, 1, 1, 100,       215,       130, 1, 1, 0, 1, 0, 1, 0, 1, 0, 1
    42,  2,         0,         0,       130,       -34,  1.09086, 0,   242.7, 0, 1, 0, 0, 1, 0, 100,       205,       135, 1, 1, 0, 1, 0, 1, 0, 1, 0, 1
    42,  3,         0,         0,       145,       -34,  1.09086, 0,   267.7, 0, 1, 0, 0, 1, 0, 100,       225,       110, 1, 1, 0, 1, 0, 1, 0, 1, 0, 1
    43,  1,         0,         0,       145,       -34,  1.09091, 0,   267.7, 0, 1, 0, 0, 1, 0, 100,       225,       120, 1, 1, 0, 1, 0, 1, 0, 1, 0, 1
    43,  2,       130,       -34,       145,       -34,  1.09091, 0,   267.7, 0, 1, 0, 0, 1, 1, 100,       225,       130, 1, 1, 0, 1, 0, 1, 0, 1, 0, 1
    43,  3,         0,         0,       130,       -34,  1.09091, 0,   242.7, 0, 1, 0, 0, 1, 0, 100,       205,       135, 1, 1, 0, 1, 0, 1, 0, 1, 0, 1
    44,  1,       255,       -47,       363,       -47,  1.04817, 0,   646.5, 0, 1, 0, 0, 1, 1, 100,       535,       255, 1, 1, 0, 1, 0, 1, 0, 1, 0, 1
    44,  2,         0,         0,       348,      -100,  1.04817, 0,   659.3, 0, 1, 0, 0, 1, 0, 100,       560,       250, 1, 1, 0, 1, 0, 1, 0, 1, 0, 1
    54,  1,         0,         0,       104,        -1,  1.09127, 0,   247.9, 0, 1, 0, 0, 1, 0, 100,       225,       129, 1, 1, 0, 1, 0, 1, 0, 1, 0, 1
    55,  1,       129,       -16,       130,       -16,  1.09126, 0,   259.9, 0, 1, 0, 0, 1, 1, 100,       225,       129, 1, 1, 0, 1, 0, 1, 0, 1, 0, 1
    54,  2,         0,         0,       130,       -16,  1.09127, 0,   259.9, 0, 1, 0, 0, 1, 0, 100,       225,       129, 1, 1, 0, 1, 0, 1, 0, 1, 0, 1
    56,  1,       129,       -16,       130,       -16,  1.03933, 0,   259.9, 0, 1, 0, 0, 1, 1, 100,       225,       129, 1, 1, 0, 1, 0, 1, 0, 1, 0, 1
    57,  1,       129,       -16,       130,       -16,  1.03932, 0,   259.9, 0, 1, 0, 0, 1, 1, 100,       225,       129, 1, 1, 0, 1, 0, 1, 0, 1, 0, 1
    57,  2,         0,         0,       104,        -1,  1.03932, 0,   247.9, 0, 1, 0, 0, 1, 0, 100,       225,       129, 1, 1, 0, 1, 0, 1, 0, 1, 0, 1
    57,  3,         0,         0,       130,       -16,  1.03932, 0,   259.9, 0, 1, 0, 0, 1, 0, 100,       225,       129, 1, 1, 0, 1, 0, 1, 0, 1, 0, 1
    58,  1,      39.7,         0,        30,         0,  1.09864, 0,    57.7, 0, 1, 0, 0, 1, 1, 100,      39.7,      39.7, 1, 1, 0, 1, 0, 1, 0, 1, 0, 1
    78,  1,       140,   21.9558,       123,       -15,  1.06723, 0,   256.4, 0, 1, 0, 0, 1, 1, 100,       225,       140, 1, 1, 0, 1, 0, 1, 0, 1, 0, 1
    78,  2,       140,   4.97652,       123,       -15,  1.06723, 0,   256.4, 0, 1, 0, 0, 1, 1, 100,       225,       140, 1, 1, 0, 1, 0, 1, 0, 1, 0, 1
    79,  1,         0,         0,       123,       -15,  1.07077, 0,     252, 0, 1, 0, 0, 1, 0, 100,       220,       140, 1, 1, 0, 1, 0, 1, 0, 1, 0, 1
    79,  2,         0,         0,       123,       -15,  1.07077, 0,   256.4, 0, 1, 0, 0, 1, 0, 100,       225,       140, 1, 1, 0, 1, 0, 1, 0, 1, 0, 1
    79,  3,       140,       -15,       123,       -15,  1.07077, 0,   256.4, 0, 1, 0, 0, 1, 1, 100,       225,       140, 1, 1, 0, 1, 0, 1, 0, 1, 0, 1
    82,  1,       380,       -31,       232,       -31,   1.0186, 0,   445.2, 0, 1, 0, 0, 1, 1, 100,       380,       220, 1, 1, 0, 1, 0, 1, 0, 1, 0, 1
    82,  2,         0,         0,       228,       -30,   1.0186, 0,   434.6, 0, 1, 0, 0, 1, 0, 100,       370,       220, 1, 1, 0, 1, 0, 1, 0, 1, 0, 1
    98,  1,     8.998,         0,         1,         0,  1.07416, 0,      12, 0, 1, 0, 0, 1, 1, 100,     8.998,     8.998, 1, 1, 0, 1, 0, 1, 0, 1, 0, 1
    98,  2,     5.998,         0,         1,         0,  1.07416, 0,     6.1, 0, 1, 0, 0, 1, 1, 100,     5.998,     5.998, 1, 1, 0, 1, 0, 1, 0, 1, 0, 1
   104,  1,       134,    78.277,       123,       -15,  1.06927, 0,   256.4, 0, 1, 0, 0, 1, 1, 100,       225,       134, 1, 1, 0, 1, 0, 1, 0, 1, 0, 1
   105,  1,         0,         0,       123,       -15,  1.06917, 0,   256.4, 0, 1, 0, 0, 1, 0, 100,       225,       134, 1, 1, 0, 1, 0, 1, 0, 1, 0, 1
   106,  1,        79,   3.09041,        80,        -2,  1.06843, 0,   144.2, 0, 1, 0, 0, 1, 1, 100,       120,        79, 1, 1, 0, 1, 0, 1, 0, 1, 0, 1
   107,  1,         0,         0,        80,        -2,   1.0684, 0,   144.2, 0, 1, 0, 0, 1, 0, 100,       120,        79, 1, 1, 0, 1, 0, 1, 0, 1, 0, 1
   116,  1,         0,         0,        90,       -20,  1.07086, 0,     150, 0, 1, 0, 0, 1, 0, 100,       120,        90, 1, 1, 0, 1, 0, 1, 0, 1, 0, 1
   117,  1,        70,        -2,        82,        -2,  1.07082, 0,   145.3, 0, 1, 0, 0, 1, 1, 100,       120,        70, 1, 1, 0, 1, 0, 1, 0, 1, 0, 1
   118,  1,         0,         0,        40,         0,  1.07063, 0,     117, 0, 1, 0, 0, 1, 0, 100,       110,        80, 1, 1, 0, 1, 0, 1, 0, 1, 0, 1
   125,  1,         0,         0,       135,       -35,   1.0744, 0,   253.9, 0, 1, 0, 0, 1, 0, 100,       215,       160, 1, 1, 0, 1, 0, 1, 0, 1, 0, 1
   126,  1,         0,         0,       140,       -35,  1.07421, 0,     265, 0, 1, 0, 0, 1, 0, 100,       225,       140, 1, 1, 0, 1, 0, 1, 0, 1, 0, 1
   126,  2,       215,       -35,       135,       -35,  1.07421, 0,   253.9, 0, 1, 0, 0, 1, 1, 100,       215,       160, 1, 1, 0, 1, 0, 1, 0, 1, 0, 1
   127,  1,       225,       -40,       140,       -40,  1.01239, 0,     265, 0, 1, 0, 0, 1, 1, 100,       225,       140, 1, 1, 0, 1, 0, 1, 0, 1, 0, 1
   127,  2,         0,         0,       137,       -40,  1.01239, 0,   259.2, 0, 1, 0, 0, 1, 0, 100,       220,       160, 1, 1, 0, 1, 0, 1, 0, 1, 0, 1
   132,  1,         0,    16.868,        40,       -38,  1.06355, 0,   131.2, 0, 1, 0, 0, 1, 1, 100,         0,         0, 1, 1, 0, 1, 0, 1, 0, 1, 0, 1
   132,  2,         0,         0,        40,       -38,  1.06355, 0,   131.2, 0, 1, 0, 0, 1, 0, 100,         0,         0, 1, 1, 0, 1, 0, 1, 0, 1, 0, 1
   133,  1,         0,         0,        40,       -38,  1.06355, 0,   131.2, 0, 1, 0, 0, 1, 0, 100,         0,         0, 1, 1, 0, 1, 0, 1, 0, 1, 0, 1
   133,  2,         0,   13.9428,        40,       -38,  1.06355, 0,   131.2, 0, 1, 0, 0, 1, 1, 100,         0,         0, 1, 1, 0, 1, 0, 1, 0, 1, 0, 1
   134,  1,         0,         0,        90,         0,   1.0664, 0,     150, 0, 1, 0, 0, 1, 0, 100,       120,       100, 1, 1, 0, 1, 0, 1, 0, 1, 0, 1
   134,  2,         0,         0,        90,         0,   1.0664, 0,     150, 0, 1, 0, 0, 1, 0, 100,       120,       100, 1, 1, 0, 1, 0, 1, 0, 1, 0, 1
   135,  1,       100,   27.1095,        90,         0,  1.06642, 0,     150, 0, 1, 0, 0, 1, 1, 100,       120,       100, 1, 1, 0, 1, 0, 1, 0, 1, 0, 1
   146,  1,         0,         0,        12,         0,  1.05776, 0,    51.4, 0, 1, 0, 0, 1, 0, 100,        50,        30, 1, 1, 0, 1, 0, 1, 0, 1, 0, 1
   146,  2,         0,         0,        12,         0,  1.05776, 0,    51.4, 0, 1, 0, 0, 1, 0, 100,        50,        30, 1, 1, 0, 1, 0, 1, 0, 1, 0, 1
   147,  1,         0,         0,        90,         0,  1.05781, 0,     150, 0, 1, 0, 0, 1, 0, 100,       120,        90, 1, 1, 0, 1, 0, 1, 0, 1, 0, 1
   148,  1,         0,         0,       149,       -48,  1.09091, 0,   267.4, 0, 1, 0, 0, 1, 0, 100,       222,        90, 1, 1, 0, 1, 0, 1, 0, 1, 0, 1
   148,  2,         0,         0,       149,       -48,  1.09091, 0,   253.4, 0, 1, 0, 0, 1, 0, 100,       205,       135, 1, 1, 0, 1, 0, 1, 0, 1, 0, 1
   148,  3,         0,         0,       149,       -48,  1.09091, 0,   253.4, 0, 1, 0, 0, 1, 0, 100,       205,       135, 1, 1, 0, 1, 0, 1, 0, 1, 0, 1
   148,  4,        90,       -48,       149,       -48,  1.09091, 0,   267.4, 0, 1, 0, 0, 1, 1, 100,       222,        90, 1, 1, 0, 1, 0, 1, 0, 1, 0, 1
   150,  1,        90,   24.8292,       123,       -23,  1.01688, 0,   253.8, 0, 1, 0, 0, 1, 1, 100,       222,        90, 1, 1, 0, 1, 0, 1, 0, 1, 0, 1
   151,  1,        90,  -41.4177,       149,       -48,  1.01688, 0,   267.4, 0, 1, 0, 0, 1, 1, 100,       222,        90, 1, 1, 0, 1, 0, 1, 0, 1, 0, 1
   151,  2,         0,         0,       123,       -23,  1.01688, 0,   253.8, 0, 1, 0, 0, 1, 0, 100,       222,        90, 1, 1, 0, 1, 0, 1, 0, 1, 0, 1
   155,  1,        94,       -53,       149,       -53,  1.08864, 0,   278.3, 0, 1, 0, 0, 1, 1, 100,       235,        94, 1, 1, 0, 1, 0, 1, 0, 1, 0, 1
   155,  2,         0,         0,       149,       -53,  1.08864, 0,   278.3, 0, 1, 0, 0, 1, 0, 100,       235,        94, 1, 1, 0, 1, 0, 1, 0, 1, 0, 1
   155,  3,         0,         0,       120,         0,  1.08864, 0,   287.3, 0, 1, 0, 0, 1, 0, 100,       261,       104, 1, 1, 0, 1, 0, 1, 0, 1, 0, 1
   155,  4,         0,         0,       132,       -40,  1.08864, 0,   292.5, 0, 1, 0, 0, 1, 0, 100,       261,       104, 1, 1, 0, 1, 0, 1, 0, 1, 0, 1
   156,  1,         0,         0,       120,         0,  1.08864, 0,   287.3, 0, 1, 0, 0, 1, 0, 100,       261,       104, 1, 1, 0, 1, 0, 1, 0, 1, 0, 1
   156,  2,       130,       -22,       117,       -22,  1.08864, 0,     236, 0, 1, 0, 0, 1, 1, 100,       205,       130, 1, 1, 0, 1, 0, 1, 0, 1, 0, 1
   156,  3,       120,       -20,       109,       -20,  1.08864, 0,   233.1, 0, 1, 0, 0, 1, 1, 100,       206,       120, 1, 1, 0, 1, 0, 1, 0, 1, 0, 1
   156,  4,         0,         0,       109,       -20,  1.08864, 0,   233.1, 0, 1, 0, 0, 1, 0, 100,       206,       120, 1, 1, 0, 1, 0, 1, 0, 1, 0, 1
   158,  1,       120,       -20,       109,       -20,  0.99847, 0,   233.1, 0, 1, 0, 0, 1, 1, 100,       206,       120, 1, 1, 0, 1, 0, 1, 0, 1, 0, 1
   164,  1,         0,         0,       104,       -23,  1.05768, 0,   225.4, 0, 1, 0, 0, 1, 0, 100,       200,       150, 1, 1, 0, 1, 0, 1, 0, 1, 0, 1
   164,  2,       200,   64.2167,       104,       -23,  1.05768, 0,   225.4, 0, 1, 0, 0, 1, 1, 100,       200,       150, 1, 1, 0, 1, 0, 1, 0, 1, 0, 1
   165,  1,       200,   75.1437,       104,       -23,  1.05768, 0,   225.4, 0, 1, 0, 0, 1, 1, 100,       200,       150, 1, 1, 0, 1, 0, 1, 0, 1, 0, 1
   165,  2,         0,         0,       104,       -23,  1.05768, 0,   225.4, 0, 1, 0, 0, 1, 0, 100,       200,       150, 1, 1, 0, 1, 0, 1, 0, 1, 0, 1
   180,  1,       120,         0,       110,         0,  1.09138, 0,   219.5, 0, 1, 0, 0, 1, 1, 100,       120,       120, 1, 1, 0, 1, 0, 1, 0, 1, 0, 1
   205,  1,         0,   39.4264,        80,   -30.001,  0.98664, 0,   196.1, 0, 1, 0, 0, 1, 1, 100,         0,         0, 1, 1, 0, 1, 0, 1, 0, 1, 0, 1
   205,  2,         0,   -16.382,        80,   -30.001,  0.98664, 0,   196.1, 0, 1, 0, 0, 1, 1, 100,         0,         0, 1, 1, 0, 1, 0, 1, 0, 1, 0, 1
   205,  3,         0,         0,       110,       -60,  0.98664, 0,   210.1, 0, 1, 0, 0, 1, 0, 100,         0,         0, 1, 1, 0, 1, 0, 1, 0, 1, 0, 1
   206,  1,         0,         0,       110,       -60,  0.98669, 0,   210.1, 0, 1, 0, 0, 1, 0, 100,         0,         0, 1, 1, 0, 1, 0, 1, 0, 1, 0, 1
   215,  1,        23,         0,        20,         0,  1.09091, 0,    58.5, 0, 1, 0, 0, 1, 1, 100,        23,        23, 1, 1, 0, 1, 0, 1, 0, 1, 0, 1
   215,  2,         0,         0,        20,         0,  1.09091, 0,    53.9, 0, 1, 0, 0, 1, 0, 100,         0,         0, 1, 1, 0, 1, 0, 1, 0, 1, 0, 1
   215,  3,         0,         0,        20,         0,  1.09091, 0,    53.9, 0, 1, 0, 0, 1, 0, 100,         0,         0, 1, 1, 0, 1, 0, 1, 0, 1, 0, 1
   215,  4,         7,         0,        20,         0,  1.09091, 0,    30.5, 0, 1, 0, 0, 1, 1, 100,         7,         7, 1, 1, 0, 1, 0, 1, 0, 1, 0, 1
   221,  1,      1.55,         0,         1,         0,   1.0868, 0,     2.3, 0, 1, 0, 0, 1, 1, 100,      1.55,      1.55, 1, 1, 0, 1, 0, 1, 0, 1, 0, 1
   222,  1,      1.55,  0.262495,         1,         0,   1.0748, 0,     2.3, 0, 1, 0, 0, 1, 1, 100,      1.55,      1.55, 1, 1, 0, 1, 0, 1, 0, 1, 0, 1
   240,  1,       6.3,   4.18608,         6,         0,  1.05704, 0,     9.8, 0, 1, 0, 0, 1, 1, 100,       6.3,       6.3, 1, 1, 0, 1, 0, 1, 0, 1, 0, 1
   247,  1,       370,       -19,       190,       -19,  1.02878, 0,   415.9, 0, 1, 0, 0, 1, 1, 100,       370,       290, 1, 1, 0, 1, 0, 1, 0, 1, 0, 1
   310,  1,         0,         0,         7,         0,  1.07912, 0,    27.9, 0, 1, 0, 0, 1, 0, 100,         0,         0, 1, 1, 0, 1, 0, 1, 0, 1, 0, 1
   310,  2,         0,         0,         7,         0,  1.07912, 0,    27.9, 0, 1, 0, 0, 1, 0, 100,         0,         0, 1, 1, 0, 1, 0, 1, 0, 1, 0, 1
   310,  3,        11,         7,         7,         4,  1.07912, 0,    30.8, 0, 1, 0, 0, 1, 1, 100,        11,        11, 1, 1, 0, 1, 0, 1, 0, 1, 0, 1
   310,  4,         0,         0,         7,         0,  1.07912, 0,    27.9, 0, 1, 0, 0, 1, 0, 100,         0,         0, 1, 1, 0, 1, 0, 1, 0, 1, 0, 1
   310,  5,         0,         0,         6,         0,  1.07912, 0,    27.7, 0, 1, 0, 0, 1, 0, 100,         0,         0, 1, 1, 0, 1, 0, 1, 0, 1, 0, 1
   310,  6,         0,         0,         7,         0,  1.07912, 0,    27.9, 0, 1, 0, 0, 1, 0, 100,         0,         0, 1, 1, 0, 1, 0, 1, 0, 1, 0, 1
   310,  7,         0,         0,         7,         0,  1.07912, 0,    27.9, 0, 1, 0, 0, 1, 0, 100,         0,         0, 1, 1, 0, 1, 0, 1, 0, 1, 0, 1
   311,  1,         0,         0,        15,         0,  1.07689, 0,    36.7, 0, 1, 0, 0, 1, 0, 100,         0,         0, 1, 1, 0, 1, 0, 1, 0, 1, 0, 1
   311,  2,         0,         0,        15,         0,  1.07689, 0,      57, 0, 1, 0, 0, 1, 0, 100,         0,         0, 1, 1, 0, 1, 0, 1, 0, 1, 0, 1
   312,  1,        16,   11.5985,        15,         0,  1.07487, 0,    36.7, 0, 1, 0, 0, 1, 1, 100,        16,        16, 1, 1, 0, 1, 0, 1, 0, 1, 0, 1
   312,  2,         0,         0,        15,         0,  1.07487, 0,      57, 0, 1, 0, 0, 1, 0, 100,         0,         0, 1, 1, 0, 1, 0, 1, 0, 1, 0, 1
   314,  1,        25,   5.94042,        20,         0,  1.08518, 0,    53.9, 0, 1, 0, 0, 1, 1, 100,        25,        25, 1, 1, 0, 1, 0, 1, 0, 1, 0, 1
   314,  2,         0,         0,        20,         0,  1.08518, 0,    53.9, 0, 1, 0, 0, 1, 0, 100,         0,         0, 1, 1, 0, 1, 0, 1, 0, 1, 0, 1
   315,  1,         0,         0,        40,         0,  1.07925, 0,   107.7, 0, 1, 0, 0, 1, 0, 100,         0,         0, 1, 1, 0, 1, 0, 1, 0, 1, 0, 1
   323,  1,       2.5,         3,         3,         0,  1.08432, 0,     4.1, 0, 1, 0, 0, 1, 1, 100,       2.5,       2.5, 1, 1, 0, 1, 0, 1, 0, 1, 0, 1
   366,  1,        40,   6.08732,        12,         0,  1.06091, 0,    47.8, 0, 1, 0, 0, 1, 1, 100,        40,        40, 1, 1, 0, 1, 0, 1, 0, 1, 0, 1
   367,  1,        40,   5.46894,        12,         0,  1.06011, 0,    47.8, 0, 1, 0, 0, 1, 1, 100,        40,        40, 1, 1, 0, 1, 0, 1, 0, 1, 0, 1
   368,  1,        40,   4.52361,        12,         0,  1.06213, 0,    47.8, 0, 1, 0, 0, 1, 1, 100,        40,        40, 1, 1, 0, 1, 0, 1, 0, 1, 0, 1
   369,  1,        40,         0,        12,         0,  1.06706, 0,    47.8, 0, 1, 0, 0, 1, 1, 100,        40,        40, 1, 1, 0, 1, 0, 1, 0, 1, 0, 1
   386,  1,       140,  -45.4985,       138,       -47,  1.08555, 0,   251.3, 0, 1, 0, 0, 1, 1, 100,       210,       140, 1, 1, 0, 1, 0, 1, 0, 1, 0, 1
   386,  2,         0,         0,        10,         0,  1.08555, 0,    26.9, 0, 1, 0, 0, 1, 0, 100,        25,        12, 1, 1, 0, 1, 0, 1, 0, 1, 0, 1
   387,  1,        10,         0,        10,         0,  1.06898, 0,    19.7, 0, 1, 0, 0, 1, 1, 100,        17,        10, 1, 1, 0, 1, 0, 1, 0, 1, 0, 1
   444,  1,       1.5,   1.56509,         2,         0,  1.03619, 0,     3.6, 0, 1, 0, 0, 1, 1, 100,       1.5,       1.5, 1, 1, 0, 1, 0, 1, 0, 1, 0, 1
   453,  1,      5.21,         0,         2,         0,   1.0809, 0,     6.1, 0, 1, 0, 0, 1, 1, 100,      5.21,      5.21, 1, 1, 0, 1, 0, 1, 0, 1, 0, 1
   453,  2,         0,         0,         2,         0,   1.0809, 0,     6.1, 0, 1, 0, 0, 1, 0, 100,         0,         0, 1, 1, 0, 1, 0, 1, 0, 1, 0, 1
   486,  1,       1.4,       0.7,       0.7,         0,  1.03025, 0,     1.7, 0, 1, 0, 0, 1, 1, 100,       1.4,       1.4, 1, 1, 0, 1, 0, 1, 0, 1, 0, 1
   537,  1,        25,         0,        14,         0,  1.06135, 0,    53.9, 0, 1, 0, 0, 1, 1, 100,        25,        25, 1, 1, 0, 1, 0, 1, 0, 1, 0, 1
   537,  2,         0,         0,        14,         0,  1.06135, 0,    34.9, 0, 1, 0, 0, 1, 0, 100,         0,         0, 1, 1, 0, 1, 0, 1, 0, 1, 0, 1
   537,  3,         0,         0,        14,         0,  1.06135, 0,      34, 0, 1, 0, 0, 1, 0, 100,         0,         0, 1, 1, 0, 1, 0, 1, 0, 1, 0, 1
   537,  4,         0,         0,        14,         0,  1.06135, 0,   105.9, 0, 1, 0, 0, 1, 0, 100,         0,         0, 1, 1, 0, 1, 0, 1, 0, 1, 0, 1
   537,  5,         0,         0,        14,         0,  1.06135, 0,   105.9, 0, 1, 0, 0, 1, 0, 100,         0,         0, 1, 1, 0, 1, 0, 1, 0, 1, 0, 1
   538,  1,        20,         0,      17.5,         0,  1.06273, 0,    36.5, 0, 1, 0, 0, 1, 1, 100,        20,        20, 1, 1, 0, 1, 0, 1, 0, 1, 0, 1
   538,  2,        20,         0,      17.5,         0,  1.06273, 0,    35.6, 0, 1, 0, 0, 1, 1, 100,        20,        20, 1, 1, 0, 1, 0, 1, 0, 1, 0, 1
   538,  3,         0,         0,      17.5,         0,  1.06273, 0,   126.2, 0, 1, 0, 0, 1, 0, 100,         0,         0, 1, 1, 0, 1, 0, 1, 0, 1, 0, 1
   538,  4,         0,         0,      17.5,         0,  1.06273, 0,   106.4, 0, 1, 0, 0, 1, 0, 100,         0,         0, 1, 1, 0, 1, 0, 1, 0, 1, 0, 1
   552,  1,       1.4,       0.7,       0.7,         0,  1.05556, 0,     1.7, 0, 1, 0, 0, 1, 1, 100,       1.4,       1.4, 1, 1, 0, 1, 0, 1, 0, 1, 0, 1
   560,  1,      22.5,   2.55494,        10,         0,  1.05752, 0,    35.4, 0, 1, 0, 0, 1, 1, 100,      22.5,      22.5, 1, 1, 0, 1, 0, 1, 0, 1, 0, 1
   560,  2,         0,         0,         5,         0,  1.05752, 0,    28.4, 0, 1, 0, 0, 1, 0, 100,         0,         0, 1, 1, 0, 1, 0, 1, 0, 1, 0, 1
   560,  3,         0,         0,         5,         0,  1.05752, 0,    26.5, 0, 1, 0, 0, 1, 0, 100,         0,         0, 1, 1, 0, 1, 0, 1, 0, 1, 0, 1
   560,  4,         0,         0,         5,         0,  1.05752, 0,    30.4, 0, 1, 0, 0, 1, 0, 100,         0,         0, 1, 1, 0, 1, 0, 1, 0, 1, 0, 1
   560,  5,         0,         0,         5,         0,  1.05752, 0,    34.4, 0, 1, 0, 0, 1, 0, 100,         0,         0, 1, 1, 0, 1, 0, 1, 0, 1, 0, 1
   561,  1,      22.5,         0,        10,         0,   1.0595, 0,    35.4, 0, 1, 0, 0, 1, 1, 100,      22.5,      22.5, 1, 1, 0, 1, 0, 1, 0, 1, 0, 1
   561,  2,         0,         0,         5,         0,   1.0595, 0,    34.4, 0, 1, 0, 0, 1, 0, 100,         0,         0, 1, 1, 0, 1, 0, 1, 0, 1, 0, 1
   561,  3,         0,         0,         5,         0,   1.0595, 0,    26.5, 0, 1, 0, 0, 1, 0, 100,         0,         0, 1, 1, 0, 1, 0, 1, 0, 1, 0, 1
   561,  4,         0,         0,         5,         0,   1.0595, 0,    34.4, 0, 1, 0, 0, 1, 0, 100,         0,         0, 1, 1, 0, 1, 0, 1, 0, 1, 0, 1
   574,  1,         1,   1.23635,         4,         0,  1.07812, 0,     8.9, 0, 1, 0, 0, 1, 1, 100,         1,         1, 1, 1, 0, 1, 0, 1, 0, 1, 0, 1
   627,  1,        76,         0,        30,         0,  1.09176, 0,    97.7, 0, 1, 0, 0, 1, 1, 100,        76,        76, 1, 1, 0, 1, 0, 1, 0, 1, 0, 1
   627,  2,        30,         0,        30,         0,  1.09176, 0,    46.8, 0, 1, 0, 0, 1, 1, 100,        30,        30, 1, 1, 0, 1, 0, 1, 0, 1, 0, 1
   665,  1,       130,       -34,       145,       -34,  1.09108, 0,   267.7, 0, 1, 0, 0, 1, 1, 100,       225,       130, 1, 1, 0, 1, 0, 1, 0, 1, 0, 1
   666,  1,         0,         0,       145,       -34,  1.09079, 0,   267.7, 0, 1, 0, 0, 1, 0, 100,       225,       130, 1, 1, 0, 1, 0, 1, 0, 1, 0, 1
   686,  1,       140,         0,        30,         0,  1.09115, 0,   182.5, 0, 1, 0, 0, 1, 1, 100,       140,       140, 1, 1, 0, 1, 0, 1, 0, 1, 0, 1
   686,  2,        47,         0,        30,         0,  1.09115, 0,    77.5, 0, 1, 0, 0, 1, 1, 100,        47,        47, 1, 1, 0, 1, 0, 1, 0, 1, 0, 1
   692,  1,      1.98,         0,         1,         0,  1.09065, 0,     2.7, 0, 1, 0, 0, 1, 1, 100,      1.98,      1.98, 1, 1, 0, 1, 0, 1, 0, 1, 0, 1
   717,  1,      1.32,         0,       1.3,         0,  1.08239, 0,    10.1, 0, 1, 0, 0, 1, 1, 100,      1.32,      1.32, 1, 1, 0, 1, 0, 1, 0, 1, 0, 1
   741,  1,       129,       -16,       130,       -16,  1.09099, 0,   259.9, 0, 1, 0, 0, 1, 1, 100,       225,       129, 1, 1, 0, 1, 0, 1, 0, 1, 0, 1
   764,  1,        82,         0,        30,         0,  1.06965, 0,   105.4, 0, 1, 0, 0, 1, 1, 100,        82,        82, 1, 1, 0, 1, 0, 1, 0, 1, 0, 1
   793,  1,         1,         0,       0.5,         0,  1.04724, 0,     8.3, 0, 1, 0, 0, 1, 1, 100,         1,         1, 1, 1, 0, 1, 0, 1, 0, 1, 0, 1
   797,  1,         0,         0,        23,         0,   1.0493, 0,    71.9, 0, 1, 0, 0, 1, 0, 100,         0,         0, 1, 1, 0, 1, 0, 1, 0, 1, 0, 1
   797,  2,         0,         0,        23,         0,   1.0493, 0,    71.9, 0, 1, 0, 0, 1, 0, 100,         0,         0, 1, 1, 0, 1, 0, 1, 0, 1, 0, 1
   797,  3,         0,         0,        11,         0,   1.0493, 0,    32.9, 0, 1, 0, 0, 1, 0, 100,         0,         0, 1, 1, 0, 1, 0, 1, 0, 1, 0, 1
   797,  4,         0,         0,        10,         0,   1.0493, 0,    32.6, 0, 1, 0, 0, 1, 0, 100,         0,         0, 1, 1, 0, 1, 0, 1, 0, 1, 0, 1
   808,  1,         0,         0,        10,         0,  1.07568, 0,   125.4, 0, 1, 0, 0, 1, 0, 100,       125,        84, 1, 1, 0, 1, 0, 1, 0, 1, 0, 1
   809,  1,        92,         0,        10,         0,  1.09118, 0,   125.4, 0, 1, 0, 0, 1, 1, 100,       125,        92, 1, 1, 0, 1, 0, 1, 0, 1, 0, 1
   846,  1,    14.996,         0,       8.1,         0,  1.07424, 0,      33, 0, 1, 0, 0, 1, 1, 100,    14.996,    14.996, 1, 1, 0, 1, 0, 1, 0, 1, 0, 1
   846,  2,    14.996,         0,       8.1,         0,  1.07424, 0,      33, 0, 1, 0, 0, 1, 1, 100,    14.996,    14.996, 1, 1, 0, 1, 0, 1, 0, 1, 0, 1
   846,  3,         0,         0,         0,         0,  1.07424, 0,      19, 0, 1, 0, 0, 1, 0, 100,         0,         0, 1, 1, 0, 1, 0, 1, 0, 1, 0, 1
   846,  4,         0,         0,         0,         0,  1.07424, 0,      19, 0, 1, 0, 0, 1, 0, 100,         0,         0, 1, 1, 0, 1, 0, 1, 0, 1, 0, 1
   878,  1,     34.99,   5.31522,      41.2,         0,  1.08146, 0,    87.7, 0, 1, 0, 0, 1, 1, 100,     34.99,     34.99, 1, 1, 0, 1, 0, 1, 0, 1, 0, 1
   901,  1,         0,         0,        45,       -10,  1.07665, 0,    65.8, 0, 1, 0, 0, 1, 0, 100,         0,         0, 1, 1, 0, 1, 0, 1, 0, 1, 0, 1
   901,  2,    44.988,  -8.16076,        45,       -10,  1.07665, 0,    71.1, 0, 1, 0, 0, 1, 1, 100,    44.988,    44.988, 1, 1, 0, 1, 0, 1, 0, 1, 0, 1
   901,  3,         0,         0,        45,       -10,  1.07665, 0,    71.1, 0, 1, 0, 0, 1, 0, 100,         0,         0, 1, 1, 0, 1, 0, 1, 0, 1, 0, 1
   976,  1,         0,         0,       110,       -40,  1.08472, 0,   162.2, 0, 1, 0, 0, 1, 0, 100,         0,         0, 1, 1, 0, 1, 0, 1, 0, 1, 0, 1
   977,  1,    99.973,   8.09625,       110,       -40,  1.08973, 0,   162.2, 0, 1, 0, 0, 1, 1, 100,    99.973,    99.973, 1, 1, 0, 1, 0, 1, 0, 1, 0, 1
   981,  1,         0,         0,         0,         0,  1.08908, 0,    16.8, 0, 1, 0, 0, 1, 0, 100,         0,         0, 1, 1, 0, 1, 0, 1, 0, 1, 0, 1
...